TrimerUA
  MatStudio         3D                             0

 30 29  0  0  0  0  0  0  0  0999 V2000
   -5.2725   -2.3942    1.2433 C   0  0  0  0  0  0  0  0  0  0
   -5.7366   -1.8847    2.6200 C   0  0  0  0  0  0  0  0  0  0
   -4.6093   -2.0812    3.6520 C   0  0  0  0  0  0  0  0  0  0
   -5.0983   -1.5861    5.0251 C   0  0  0  0  0  0  0  0  0  0
   -3.9954   -1.7668    6.0853 C   0  0  0  0  0  0  0  0  0  0
   -4.5506   -1.2854    7.4381 C   0  0  0  0  0  0  0  0  0  0
   -3.5020   -1.4184    8.5580 C   0  0  0  0  0  0  0  0  0  0
   -4.1654   -0.9292    9.8582 C   0  0  0  0  0  0  0  0  0  0
   -3.1902   -0.9544   11.0493 C   0  0  0  0  0  0  0  0  0  0
   -1.9896   -0.0552   10.6997 C   0  0  0  0  0  0  0  0  0  0
   -4.0020   -0.4311   12.2523 C   0  0  0  0  0  0  0  0  0  0
   -3.2526   -0.2785   13.5917 C   0  0  0  0  0  0  0  0  0  0
   -2.1152    0.7515   13.4143 C   0  0  0  0  0  0  0  0  0  0
   -1.6098    1.3073   14.7571 C   0  0  0  0  0  0  0  0  0  0
   -1.1042    0.2478   15.7542 C   0  0  0  0  0  0  0  0  0  0
   -0.9845    1.0214   17.0804 C   0  0  0  0  0  0  0  0  0  0
   -0.6411    0.1315   18.2871 C   0  0  0  0  0  0  0  0  0  0
   -0.6855    1.0431   19.5283 C   0  0  0  0  0  0  0  0  0  0
   -0.3950    0.2470   20.8133 C   0  0  0  0  0  0  0  0  0  0
   -0.4794    1.2035   22.0183 C   0  0  0  0  0  0  0  0  0  0
   -4.3273    0.1639   14.6101 C   0  0  0  0  0  0  0  0  0  0
   -3.7673    0.1666   16.0458 C   0  0  0  0  0  0  0  0  0  0
   -4.8360    0.4824   17.1048 C   0  0  0  0  0  0  0  0  0  0
   -4.1270    0.4227   18.4711 C   0  0  0  0  0  0  0  0  0  0
   -5.1206    0.7447   19.6017 C   0  0  0  0  0  0  0  0  0  0
   -4.3827    0.6704   20.9512 C   0  0  0  0  0  0  0  0  0  0
   -5.3667    1.0093   22.0852 C   0  0  0  0  0  0  0  0  0  0
   -4.6357    0.9397   23.4388 C   0  0  0  0  0  0  0  0  0  0
   -5.6215    1.2918   24.5670 C   0  0  0  0  0  0  0  0  0  0
   -4.8950    1.2249   25.9228 C   0  0  0  0  0  0  0  0  0  0
  1  2  1  0  0  0
  2  3  1  0  0  0
  3  4  1  0  0  0
  4  5  1  0  0  0
  5  6  1  0  0  0
  6  7  1  0  0  0
  7  8  1  0  0  0
  8  9  1  0  0  0
  9 10  1  0  0  0
  9 11  1  0  0  0
 11 12  1  0  0  0
 12 13  1  0  0  0
 13 14  1  0  0  0
 14 15  1  0  0  0
 15 16  1  0  0  0
 16 17  1  0  0  0
 17 18  1  0  0  0
 18 19  1  0  0  0
 19 20  1  0  0  0
 12 21  1  0  0  0
 21 22  1  0  0  0
 22 23  1  0  0  0
 23 24  1  0  0  0
 24 25  1  0  0  0
 25 26  1  0  0  0
 26 27  1  0  0  0
 27 28  1  0  0  0
 28 29  1  0  0  0
 29 30  1  0  0  0
M  END
