TrimerAA
  MatStudio         3D                             0

 92 91  0  0  0  0  0  0  0  0999 V2000
   -5.2725   -2.3942    1.2433 C   0  0  0  0  0  0  0  0  0  0
   -5.7366   -1.8847    2.6200 C   0  0  0  0  0  0  0  0  0  0
   -4.6093   -2.0812    3.6520 C   0  0  0  0  0  0  0  0  0  0
   -5.0983   -1.5861    5.0251 C   0  0  0  0  0  0  0  0  0  0
   -3.9954   -1.7668    6.0853 C   0  0  0  0  0  0  0  0  0  0
   -4.5506   -1.2854    7.4381 C   0  0  0  0  0  0  0  0  0  0
   -3.5020   -1.4184    8.5580 C   0  0  0  0  0  0  0  0  0  0
   -4.1654   -0.9292    9.8582 C   0  0  0  0  0  0  0  0  0  0
   -3.1902   -0.9544   11.0493 C   0  0  0  0  0  0  0  0  0  0
   -1.9896   -0.0552   10.6997 C   0  0  0  0  0  0  0  0  0  0
   -4.0020   -0.4311   12.2523 C   0  0  0  0  0  0  0  0  0  0
   -3.2526   -0.2785   13.5917 C   0  0  0  0  0  0  0  0  0  0
   -2.1152    0.7515   13.4143 C   0  0  0  0  0  0  0  0  0  0
   -1.6098    1.3073   14.7571 C   0  0  0  0  0  0  0  0  0  0
   -1.1042    0.2478   15.7542 C   0  0  0  0  0  0  0  0  0  0
   -0.9845    1.0214   17.0804 C   0  0  0  0  0  0  0  0  0  0
   -0.6411    0.1315   18.2871 C   0  0  0  0  0  0  0  0  0  0
   -0.6855    1.0431   19.5283 C   0  0  0  0  0  0  0  0  0  0
   -0.3950    0.2470   20.8133 C   0  0  0  0  0  0  0  0  0  0
   -0.4794    1.2035   22.0183 C   0  0  0  0  0  0  0  0  0  0
   -4.3273    0.1639   14.6101 C   0  0  0  0  0  0  0  0  0  0
   -3.7673    0.1666   16.0458 C   0  0  0  0  0  0  0  0  0  0
   -4.8360    0.4824   17.1048 C   0  0  0  0  0  0  0  0  0  0
   -4.1270    0.4227   18.4711 C   0  0  0  0  0  0  0  0  0  0
   -5.1206    0.7447   19.6017 C   0  0  0  0  0  0  0  0  0  0
   -4.3827    0.6704   20.9512 C   0  0  0  0  0  0  0  0  0  0
   -5.3667    1.0093   22.0852 C   0  0  0  0  0  0  0  0  0  0
   -4.6357    0.9397   23.4388 C   0  0  0  0  0  0  0  0  0  0
   -5.6215    1.2918   24.5670 C   0  0  0  0  0  0  0  0  0  0
   -4.8950    1.2249   25.9228 C   0  0  0  0  0  0  0  0  0  0
   -6.1086   -2.2463    0.4826 H   0  0  0  0  0  0  0  0  0  0
   -5.0156   -3.5025    1.3162 H   0  0  0  0  0  0  0  0  0  0
   -4.3504   -1.8104    0.9143 H   0  0  0  0  0  0  0  0  0  0
   -6.6569   -2.4725    2.9473 H   0  0  0  0  0  0  0  0  0  0
   -5.9993   -0.7777    2.5470 H   0  0  0  0  0  0  0  0  0  0
   -3.6887   -1.4876    3.3357 H   0  0  0  0  0  0  0  0  0  0
   -4.3442   -3.1877    3.7224 H   0  0  0  0  0  0  0  0  0  0
   -6.0182   -2.1859    5.3311 H   0  0  0  0  0  0  0  0  0  0
   -5.3736   -0.4824    4.9530 H   0  0  0  0  0  0  0  0  0  0
   -3.0812   -1.1494    5.7981 H   0  0  0  0  0  0  0  0  0  0
   -3.7062   -2.8670    6.1601 H   0  0  0  0  0  0  0  0  0  0
   -5.4650   -1.9106    7.7073 H   0  0  0  0  0  0  0  0  0  0
   -4.8574   -0.1910    7.3497 H   0  0  0  0  0  0  0  0  0  0
   -2.5958   -0.7697    8.3170 H   0  0  0  0  0  0  0  0  0  0
   -3.1795   -2.5063    8.6686 H   0  0  0  0  0  0  0  0  0  0
   -5.0645   -1.5892   10.0932 H   0  0  0  0  0  0  0  0  0  0
   -4.5188    0.1441    9.7067 H   0  0  0  0  0  0  0  0  0  0
   -2.8292   -2.0179   11.2448 H   0  0  0  0  0  0  0  0  0  0
   -1.4864   -0.4528    9.7570 H   0  0  0  0  0  0  0  0  0  0
   -1.2374   -0.0633   11.5539 H   0  0  0  0  0  0  0  0  0  0
   -2.3518    1.0097   10.5155 H   0  0  0  0  0  0  0  0  0  0
   -4.8785   -1.1420   12.4156 H   0  0  0  0  0  0  0  0  0  0
   -4.4138    0.5954   11.9763 H   0  0  0  0  0  0  0  0  0  0
   -2.8287   -1.2777   13.9403 H   0  0  0  0  0  0  0  0  0  0
   -2.5231    1.6404   12.8286 H   0  0  0  0  0  0  0  0  0  0
   -1.2594    0.2775   12.8321 H   0  0  0  0  0  0  0  0  0  0
   -2.5010    1.8324   15.2357 H   0  0  0  0  0  0  0  0  0  0
   -0.7898    2.0791   14.5799 H   0  0  0  0  0  0  0  0  0  0
   -0.1152   -0.2103   15.4208 H   0  0  0  0  0  0  0  0  0  0
   -1.8875   -0.5702   15.8785 H   0  0  0  0  0  0  0  0  0  0
   -1.9998    1.4979   17.2863 H   0  0  0  0  0  0  0  0  0  0
   -0.2033    1.8448   16.9740 H   0  0  0  0  0  0  0  0  0  0
    0.3923   -0.3331   18.1627 H   0  0  0  0  0  0  0  0  0  0
   -1.4244   -0.6898   18.3937 H   0  0  0  0  0  0  0  0  0  0
   -1.7263    1.5021   19.6092 H   0  0  0  0  0  0  0  0  0  0
    0.0855    1.8752   19.4149 H   0  0  0  0  0  0  0  0  0  0
    0.6488   -0.2077   20.7560 H   0  0  0  0  0  0  0  0  0  0
   -1.1688   -0.5817   20.9313 H   0  0  0  0  0  0  0  0  0  0
   -0.2667    0.6273   22.9786 H   0  0  0  0  0  0  0  0  0  0
   -1.5251    1.6555   22.0689 H   0  0  0  0  0  0  0  0  0  0
    0.2892    2.0365   21.8955 H   0  0  0  0  0  0  0  0  0  0
   -5.1756   -0.5969   14.5756 H   0  0  0  0  0  0  0  0  0  0
   -4.7338    1.1923   14.3336 H   0  0  0  0  0  0  0  0  0  0
   -2.9505    0.9499   16.1500 H   0  0  0  0  0  0  0  0  0  0
   -3.3315   -0.8630   16.2682 H   0  0  0  0  0  0  0  0  0  0
   -5.6711   -0.2924   17.0640 H   0  0  0  0  0  0  0  0  0  0
   -5.2640    1.5244   16.9299 H   0  0  0  0  0  0  0  0  0  0
   -3.2761    1.1823   18.4889 H   0  0  0  0  0  0  0  0  0  0
   -3.7000   -0.6233   18.6251 H   0  0  0  0  0  0  0  0  0  0
   -5.9751   -0.0099   19.5901 H   0  0  0  0  0  0  0  0  0  0
   -5.5376    1.7948   19.4514 H   0  0  0  0  0  0  0  0  0  0
   -3.5229    1.4190   20.9574 H   0  0  0  0  0  0  0  0  0  0
   -3.9703   -0.3813   21.1035 H   0  0  0  0  0  0  0  0  0  0
   -6.2278    0.2624   22.0796 H   0  0  0  0  0  0  0  0  0  0
   -5.7765    2.0613   21.9276 H   0  0  0  0  0  0  0  0  0  0
   -3.7702    1.6814   23.4451 H   0  0  0  0  0  0  0  0  0  0
   -4.2336   -0.1144   23.6007 H   0  0  0  0  0  0  0  0  0  0
   -6.4877    0.5510   24.5603 H   0  0  0  0  0  0  0  0  0  0
   -6.0228    2.3459   24.4015 H   0  0  0  0  0  0  0  0  0  0
   -4.0299    1.9672   25.9262 H   0  0  0  0  0  0  0  0  0  0
   -4.4919    0.1718   26.0896 H   0  0  0  0  0  0  0  0  0  0
   -5.6244    1.4889   26.7581 H   0  0  0  0  0  0  0  0  0  0
  1  2  1  0  0  0
  2  3  1  0  0  0
  3  4  1  0  0  0
  4  5  1  0  0  0
  5  6  1  0  0  0
  6  7  1  0  0  0
  7  8  1  0  0  0
  8  9  1  0  0  0
  9 10  1  0  0  0
  9 11  1  0  0  0
 11 12  1  0  0  0
 12 13  1  0  0  0
 13 14  1  0  0  0
 14 15  1  0  0  0
 15 16  1  0  0  0
 16 17  1  0  0  0
 17 18  1  0  0  0
 18 19  1  0  0  0
 19 20  1  0  0  0
 12 21  1  0  0  0
 21 22  1  0  0  0
 22 23  1  0  0  0
 23 24  1  0  0  0
 24 25  1  0  0  0
 25 26  1  0  0  0
 26 27  1  0  0  0
 27 28  1  0  0  0
 28 29  1  0  0  0
 29 30  1  0  0  0
  1 31  1  0  0  0
  1 32  1  0  0  0
  1 33  1  0  0  0
  2 34  1  0  0  0
  2 35  1  0  0  0
  3 36  1  0  0  0
  3 37  1  0  0  0
  4 38  1  0  0  0
  4 39  1  0  0  0
  5 40  1  0  0  0
  5 41  1  0  0  0
  6 42  1  0  0  0
  6 43  1  0  0  0
  7 44  1  0  0  0
  7 45  1  0  0  0
  8 46  1  0  0  0
  8 47  1  0  0  0
  9 48  1  0  0  0
 10 49  1  0  0  0
 10 50  1  0  0  0
 10 51  1  0  0  0
 11 52  1  0  0  0
 11 53  1  0  0  0
 12 54  1  0  0  0
 13 55  1  0  0  0
 13 56  1  0  0  0
 14 57  1  0  0  0
 14 58  1  0  0  0
 15 59  1  0  0  0
 15 60  1  0  0  0
 16 61  1  0  0  0
 16 62  1  0  0  0
 17 63  1  0  0  0
 17 64  1  0  0  0
 18 65  1  0  0  0
 18 66  1  0  0  0
 19 67  1  0  0  0
 19 68  1  0  0  0
 20 69  1  0  0  0
 20 70  1  0  0  0
 20 71  1  0  0  0
 21 72  1  0  0  0
 21 73  1  0  0  0
 22 74  1  0  0  0
 22 75  1  0  0  0
 23 76  1  0  0  0
 23 77  1  0  0  0
 24 78  1  0  0  0
 24 79  1  0  0  0
 25 80  1  0  0  0
 25 81  1  0  0  0
 26 82  1  0  0  0
 26 83  1  0  0  0
 27 84  1  0  0  0
 27 85  1  0  0  0
 28 86  1  0  0  0
 28 87  1  0  0  0
 29 88  1  0  0  0
 29 89  1  0  0  0
 30 90  1  0  0  0
 30 91  1  0  0  0
 30 92  1  0  0  0
M  END
