2-methylpentane
  MatStudio         3D                             0

 20 19  0  0  0  0  0  0  0  0999 V2000
   -4.0291    0.6403   -0.0194 C   0  0  0  0  0  0  0  0  0  0
   -2.8229    1.4398    0.5070 C   0  0  0  0  0  0  0  0  0  0
   -1.9504    0.5363    1.3967 C   0  0  0  0  0  0  0  0  0  0
   -0.7614    1.3592    1.9252 C   0  0  0  0  0  0  0  0  0  0
    0.1178    0.4721    2.8258 C   0  0  0  0  0  0  0  0  0  0
   -3.3167    2.6346    1.3431 C   0  0  0  0  0  0  0  0  0  0
   -3.6585   -0.2455   -0.6339 H   0  0  0  0  0  0  0  0  0  0
   -4.6750    1.3139   -0.6741 H   0  0  0  0  0  0  0  0  0  0
   -4.6459    0.2609    0.8611 H   0  0  0  0  0  0  0  0  0  0
   -2.2043    1.8203   -0.3717 H   0  0  0  0  0  0  0  0  0  0
   -1.5668   -0.3479    0.7879 H   0  0  0  0  0  0  0  0  0  0
   -2.5691    0.1551    2.2750 H   0  0  0  0  0  0  0  0  0  0
   -1.1537    2.2447    2.5268 H   0  0  0  0  0  0  0  0  0  0
   -0.1436    1.7412    1.0465 H   0  0  0  0  0  0  0  0  0  0
    0.5075   -0.4132    2.2224 H   0  0  0  0  0  0  0  0  0  0
   -0.5016    0.0906    3.7036 H   0  0  0  0  0  0  0  0  0  0
    0.9977    1.0819    3.2178 H   0  0  0  0  0  0  0  0  0  0
   -3.9339    2.2530    2.2222 H   0  0  0  0  0  0  0  0  0  0
   -3.9599    3.3149    0.6926 H   0  0  0  0  0  0  0  0  0  0
   -2.4184    3.2175    1.7345 H   0  0  0  0  0  0  0  0  0  0
  1  2  1  0  0  0
  2  3  1  0  0  0
  3  4  1  0  0  0
  4  5  1  0  0  0
  2  6  1  0  0  0
  1  7  1  0  0  0
  1  8  1  0  0  0
  1  9  1  0  0  0
  2 10  1  0  0  0
  3 11  1  0  0  0
  3 12  1  0  0  0
  4 13  1  0  0  0
  4 14  1  0  0  0
  5 15  1  0  0  0
  5 16  1  0  0  0
  5 17  1  0  0  0
  6 18  1  0  0  0
  6 19  1  0  0  0
  6 20  1  0  0  0
M  END
